
     RDKit          3D

  8  7  0  0  0  0  0  0  0  0999 V2000
    0.7556    0.0118   -0.1147 C   0  0  0  0  0  0  0  0  0  0  0  0
   -0.7545   -0.0101    0.1106 C   0  0  0  0  0  0  0  0  0  0  0  0
    1.1214    1.0012    0.2434 H   0  0  0  0  0  0  0  0  0  0  0  0
    0.9106   -0.1565   -1.1845 H   0  0  0  0  0  0  0  0  0  0  0  0
    1.2104   -0.8039    0.4758 H   0  0  0  0  0  0  0  0  0  0  0  0
   -1.1666   -0.9357   -0.3653 H   0  0  0  0  0  0  0  0  0  0  0  0
   -0.8948   -0.0071    1.2109 H   0  0  0  0  0  0  0  0  0  0  0  0
   -1.1820    0.9004   -0.3762 H   0  0  0  0  0  0  0  0  0  0  0  0
  1  2  1  0
  1  3  1  0
  1  4  1  0
  1  5  1  0
  2  6  1  0
  2  7  1  0
  2  8  1  0
M  END
$$$$
